Version 4
SHEET 1 880 680
WIRE 208 -128 112 -128
WIRE 208 -112 208 -128
WIRE 352 -112 208 -112
WIRE 208 -96 208 -112
WIRE 112 -80 112 -128
WIRE 352 -80 352 -112
WIRE 112 16 112 0
WIRE 208 16 208 -16
WIRE 352 16 352 -16
WIRE 352 16 208 16
WIRE 208 64 208 16
WIRE 208 64 128 64
WIRE 272 64 208 64
WIRE -48 112 -96 112
WIRE 64 112 32 112
WIRE 272 112 272 64
WIRE -96 144 -96 112
WIRE 176 160 128 160
WIRE 208 160 176 160
WIRE 176 208 176 160
WIRE -96 320 -96 224
WIRE 176 320 176 288
WIRE 176 320 -96 320
WIRE 272 320 272 208
WIRE 272 320 176 320
WIRE 176 352 176 320
FLAG 176 352 0
FLAG 112 16 0
SYMBOL npn 64 64 R0
SYMATTR InstName Q1
SYMATTR Value BC547C
SYMBOL npn 208 112 R0
SYMATTR InstName Q2
SYMATTR Value BC547C
SYMBOL res 160 192 R0
SYMATTR InstName R1
SYMATTR Value 100
SYMBOL res 48 96 R90
WINDOW 0 0 56 VBottom 2
WINDOW 3 32 56 VTop 2
SYMATTR InstName R2
SYMATTR Value 1k
SYMBOL ind 192 -112 R0
SYMATTR InstName L1
SYMATTR Value 100m
SYMATTR SpiceLine Ipk=79.4m Rser=63
SYMBOL voltage 112 -96 R0
WINDOW 123 0 0 Left 0
WINDOW 39 0 0 Left 0
SYMATTR InstName V2
SYMATTR Value 5
SYMBOL voltage -96 128 R0
WINDOW 3 -164 86 Top 2
WINDOW 123 0 0 Left 0
WINDOW 39 0 0 Left 0
SYMATTR Value PULSE(0 3.3 0 0 0 0.5 1 5)
SYMATTR InstName V1
SYMBOL diode 368 -16 R180
WINDOW 0 24 64 Left 2
WINDOW 3 -96 35 Left 2
SYMATTR InstName D1
SYMATTR Value 1N4148
TEXT -416 376 Left 2 !.tran 0 5 0 startup
